! This thermodynamic database was obtained by fitting the thermodynamic properties
! extracted from the following file: TOT2003.THERM
! The thermodynamic properties are fitted in order to preserve not only the 
! continuity of each function at the intermediate temperature, but also the  continuity
! of the derivatives, from the 1st to the 3rd order
! The intermediate temperatures are chosen in order to minimize the fitting error.
! Last update: 3/25/2020

THERMO ALL
270.   1000.   3500. 
AR                      AR  1               G    200.00   3500.00  820.00      1
 2.50013931e+00-3.98290200e-07 3.45886082e-10-1.18293971e-13 1.38553174e-17    2
-7.45407891e+02 4.37897362e+00 2.49974489e+00 1.52569132e-06-3.17359231e-09    3
 2.74307057e-12-8.58511922e-16-7.45343207e+02 4.38079817e+00                   4
H2                      H   2               G    200.00   3500.00  700.00      1
 3.78199881e+00-1.01873259e-03 1.24226233e-06-4.19011898e-10 4.75543793e-14    2
-1.10283023e+03-5.60525910e+00 2.64204438e+00 5.49529274e-03-1.27163634e-05    3
 1.28749173e-08-4.70027749e-12-9.43236614e+02-5.12231102e-01                   4
H                       H   1               G    200.00   3500.00  860.00      1
 2.50031493e+00-7.73406828e-07 6.39345346e-10-2.12551791e-13 2.44479191e-17    2
 2.54736474e+04-4.48357228e-01 2.49950544e+00 2.99164046e-06-5.92759759e-09    3
 4.87810165e-12-1.45539320e-15 2.54737866e+04-4.44574018e-01                   4
CH4                     C   1H   4          G    300.00   3500.00  700.00      1
 5.05346405e-01 1.23697845e-02-4.99807922e-06 1.04392765e-09-8.62897416e-14    2
-9.58982501e+03 1.61752775e+01 5.23967335e+00-1.46835123e-02 5.29732711e-05    3
-5.41668822e-08 1.96318566e-11-1.02526308e+04-4.97649748e+00                   4
CH3                     C   1H   3          G    300.00   3500.00 1060.00      1
 2.78805104e+00 6.15233477e-03-2.21179349e-06 3.74402648e-10-2.48151349e-14    2
 1.65862829e+04 5.77899818e+00 3.47829310e+00 3.54764773e-03 1.47408440e-06    3
-1.94375955e-09 5.21921232e-13 1.64399516e+04 2.40875956e+00                   4
CH2                     C   1H   2          G    300.00   3500.00 1800.00      1
 2.81272972e+00 3.55431388e-03-1.28768523e-06 2.21273744e-10-1.48738147e-14    2
 4.62073492e+04 6.64284652e+00 3.76489460e+00 1.43839191e-03 4.75583077e-07    3
-4.31788591e-10 7.58292874e-14 4.58645699e+04 1.48953153e+00                   4
CH2xS                   C   1H   2          G    300.00   3500.00  970.00      1
 2.75934299e+00 3.65468307e-03-1.35589914e-06 2.74980411e-10-2.36795472e-14    2
 5.06429079e+04 6.11646383e+00 4.18185434e+00-2.21134314e-03 7.71527541e-06    3
-5.95950381e-09 1.58314628e-12 5.03669407e+04-7.03002602e-01                   4
C                       C   1               G    200.00   3500.00  700.00      1
 2.49472531e+00 3.92839476e-05-6.70014980e-08 3.71818694e-11-5.07306885e-15    2
 8.54504422e+04 4.79314254e+00 2.54495192e+00-2.47725281e-04 5.48018277e-07    3
-5.48551250e-10 2.04117331e-13 8.54434105e+04 4.56874273e+00                   4
CH                      C   1H   1          G    300.00   3500.00 1590.00      1
 2.27990128e+00 2.16985238e-03-7.07637885e-07 1.23973494e-10-9.56348515e-15    2
 7.11059412e+04 8.77326061e+00 3.77264332e+00-1.58547350e-03 2.83512238e-06    3
-1.36146058e-09 2.23995332e-13 7.06312492e+04 8.79407904e-01                   4
C2H6                    C   2H   6          G    300.00   3500.00 1800.00      1
 4.07959141e+00 1.57445261e-02-5.96197393e-06 1.06867182e-09-7.61012340e-14    2
-1.25948053e+04-1.43089412e+00-2.41778724e-01 2.53475709e-02-1.39645112e-05    3
 4.03257452e-09-4.87754387e-13-1.10391121e+04 2.19572625e+01                   4
C2H5                    C   2H   5          G    300.00   3500.00 1800.00      1
 5.19791360e+00 1.11042800e-02-3.71281686e-06 5.47665571e-10-2.89412604e-14    2
 1.17176215e+04-4.91382513e+00 6.75421801e-01 2.11542617e-02-1.20878017e-05    3
 3.64951180e-09-4.59753237e-13 1.33457186e+04 1.95628439e+01                   4
C2H4                    C   2H   4          G    300.00   3500.00 1650.00      1
 4.60402718e+00 9.50595350e-03-3.15129261e-06 4.53052074e-10-2.23949159e-14    2
 3.97229102e+03-3.77420905e+00-6.02932450e-02 2.08133970e-02-1.34307867e-05    3
 4.60638301e-09-6.51687481e-13 5.51151676e+03 2.10642172e+01                   4
C2H3                    C   2H   3          G    300.00   3500.00 1450.00      1
 4.18728376e+00 7.47581588e-03-2.58984227e-06 4.05265795e-10-2.35022721e-14    2
 3.38403785e+04 1.51958751e+00 1.23421214e+00 1.56222204e-02-1.10171572e-05    3
 4.27989337e-09-6.91541509e-13 3.46967692e+04 1.68637048e+01                   4
C2H2                    C   2H   2          G    300.00   3500.00  790.00      1
 4.37267454e+00 5.47212830e-03-2.03181542e-06 3.75019116e-10-2.77049062e-14    2
 2.58626597e+04-2.43835921e+00 7.70536907e-01 2.37107998e-02-3.66622044e-05    3
 2.95989761e-08-9.27579255e-12 2.64317975e+04 1.40907683e+01                   4
C2H                     C   2H   1          G    300.00   3500.00 1710.00      1
 3.41788257e+00 4.21328989e-03-1.58936946e-06 2.68739191e-10-1.73346359e-14    2
 6.72874491e+04 5.32512367e+00 4.60873599e+00 1.42766785e-03 8.54158643e-07    3
-6.83903344e-10 1.21940589e-13 6.68801772e+04-1.05894068e+00                   4
C3H8                    C   3H   8          G    300.00   3500.00 1690.00      1
 8.33847007e+00 1.79340922e-02-5.80534981e-06 7.91037708e-10-3.43401227e-14    2
-1.70816233e+04-2.27461799e+01-1.38651266e+00 4.09518028e-02-2.62352705e-05    3
 8.85017800e-09-1.22652064e-12-1.37945792e+04 2.92742161e+01                   4
IC3H7                   C   3H   7          G    300.00   3500.00 1800.00      1
 6.05951251e+00 1.82035621e-02-6.54041321e-06 1.09272144e-09-7.13189353e-14    2
 7.29671818e+03-6.80793083e+00-6.08211221e-01 3.30207259e-02-1.88880497e-05    3
 5.66592015e-09-7.06485424e-13 9.69709872e+03 2.92791809e+01                   4
NC3H7                   C   3H   7          G    300.00   3500.00 1590.00      1
 7.21724982e+00 1.65877265e-02-5.58902439e-06 8.31338515e-10-4.40999325e-14    2
 8.50975633e+03-1.26938767e+01-1.37086178e-01 3.50892007e-02-2.30432453e-05    3
 8.14967015e-09-1.19478101e-12 1.08484352e+04 2.61969991e+01                   4
C3H6                    C   3H   6          G    298.00   3500.00 1800.00      1
 6.31755201e+00 1.65820017e-02-6.59972302e-06 1.29512916e-09-1.03784375e-13    2
-3.79456071e+02-1.05616187e+01-8.55987188e-02 3.08112255e-02-1.84574096e-05    3
 5.68686491e-09-7.13747674e-13 1.92567819e+03 2.40935687e+01                   4
C3H5A                   C   3H   5          G    298.00   3500.00 1600.00      1
 8.53877792e+00 1.04611885e-02-3.15379708e-06 3.85306884e-10-1.26413689e-14    2
 1.71766363e+04-2.28181758e+01-3.57888096e-01 3.27028536e-02-2.40053580e-05    3
 9.07345729e-09-1.37016487e-12 2.00235695e+04 2.42845603e+01                   4
C3H5S                   C   3H   5          G    300.00   3500.00 1800.00      1
 6.52599516e+00 1.37686655e-02-5.50691342e-06 1.07278366e-09-8.39560017e-14    2
 2.86430050e+04-9.99635700e+00 1.54227621e+00 2.48435965e-02-1.47360226e-05    3
 4.49097224e-09-5.58704416e-13 3.04371438e+04 1.69765696e+01                   4
C3H5T                   C   3H   5          G    300.00   3500.00  770.00      1
 1.49331935e+00 2.33788729e-02-1.18550710e-05 2.86552470e-09-2.68203790e-13    2
 2.87117775e+04 1.76892214e+01 2.52238869e+00 1.80330581e-02-1.44114618e-06    3
-6.15086046e-09 2.65919399e-12 2.85533009e+04 1.29935191e+01                   4
C3H4P                   C   3H   4          G    300.00   3500.00 1570.00      1
 6.45797858e+00 1.06371316e-02-3.61161722e-06 5.39412691e-10-2.85851275e-14    2
 1.94136786e+04-1.10770989e+01 1.72714322e+00 2.26902153e-02-1.51273023e-05    3
 5.42930020e-09-8.07229635e-13 2.08991609e+04 1.38804115e+01                   4
C3H4A                   C   3H   4          G    300.00   3500.00 1420.00      1
 6.37608366e+00 1.10282079e-02-3.89476312e-06 6.16686076e-10-3.59564768e-14    2
 2.00917847e+04-1.13283006e+01 5.08248696e-01 2.75573205e-02-2.13550933e-05    3
 8.81402419e-09-1.47914981e-12 2.17582498e+04 1.90382079e+01                   4
C3H3                    C   3H   3          G    300.00   3500.00  840.00      1
 5.75057762e+00 1.05635747e-02-4.84060952e-06 1.09040068e-09-9.80036130e-14    2
 4.00565408e+04-5.04125059e+00 1.75584147e+00 2.95861278e-02-3.88094543e-05    3
 2.80498013e-08-8.12163476e-12 4.07276565e+04 1.35345464e+01                   4
C3H2                    C   3H   2          G    300.00   3500.00 1260.00      1
 6.42043189e+00 6.05128866e-03-2.30888141e-06 4.10631875e-10-2.84293474e-14    2
 6.08598164e+04-8.32404334e+00 2.15397882e+00 1.95955841e-02-1.84330427e-05    3
 8.94193413e-09-1.72114805e-12 6.19349626e+04 1.32451538e+01                   4
NC4H10                  C   4H  10          G    300.00   3500.00 1800.00      1
 1.54355362e+01 1.56272553e-02-3.14851999e-06-5.94424210e-11 5.32964638e-14    2
-2.28455262e+04-6.02417835e+01-1.20836758e+00 5.26137081e-02-3.39705640e-05    3
 1.13561294e-08-1.53219963e-12-1.68537208e+04 2.98384958e+01                   4
PC4H9                   C   4H   9          G    300.00   3500.00  950.00      1
 3.94763006e+00 3.16286394e-02-1.12984867e-05 1.11637450e-09 5.54031605e-14    2
 6.05554723e+03 7.76350061e+00-2.76188385e-01 4.94131381e-02-3.93792741e-05    3
 2.08221903e-08-5.13033783e-12 6.85807273e+03 2.79243295e+01                   4
SC4H9                   C   4H   9          G    300.00   3500.00  850.00      1
 3.40122928e+00 3.20901863e-02-1.12255470e-05 9.71712110e-10 8.30726274e-14    2
 4.66283101e+03 1.05291639e+01 2.36336421e-01 4.69837998e-02-3.75083943e-05    3
 2.15857099e-08-5.97986791e-12 5.20086280e+03 2.52835874e+01                   4
IC4H10                  C   4H  10          G    300.00   3500.00 1260.00      1
 5.51955795e+00 3.23747266e-02-1.18655436e-05 1.37455177e-09 1.57073481e-14    2
-1.97025810e+04-6.34483426e+00-1.85965329e+00 5.58007941e-02-3.97537191e-05    3
 1.61302002e-08-2.91200067e-12-1.78430198e+04 3.09610166e+01                   4
IC4H9                   C   4H   9          G    300.00   3500.00 1430.00      1
 7.95880517e+00 2.55088283e-02-8.62221490e-06 8.09648920e-10 4.02033223e-14    2
 3.37759297e+03-1.61084037e+01-1.15582377e+00 5.10042938e-02-3.53657102e-05    3
 1.32774789e-08-2.13948724e-12 5.98437685e+03 3.11244820e+01                   4
TC4H9                   C   4H   9          G    300.00   3500.00 1400.00      1
 7.90871689e+00 2.55264450e-02-8.65284049e-06 8.24419700e-10 3.80550657e-14    2
 8.35470579e+02-1.73299272e+01-1.29900233e+00 5.18342142e-02-3.68397361e-05    3
 1.42467509e-08-2.35878980e-12 3.41363196e+03 3.01901373e+01                   4
IC4H8                   C   4H   8          G    300.00   3500.00 1800.00      1
 7.63433967e+00 2.47722696e-02-1.05415828e-05 2.18152373e-09-1.80119594e-13    2
-6.21385767e+03-1.72949366e+01 7.17301599e-01 4.01434653e-02-2.33509125e-05    3
 6.92571993e-09-8.39035733e-13-3.72372397e+03 2.01415164e+01                   4
IC4H7                   C   4H   7          G    300.00   3500.00  700.00      1
 1.18177117e+00 3.67769037e-02-1.77031337e-05 3.74786266e-09-2.92191284e-13    2
 1.31214242e+04 2.00120540e+01 3.86130010e+00 2.14653098e-02 1.51074247e-05    3
-2.75002882e-08 1.08678626e-11 1.27462902e+04 8.04059663e+00                   4
C4H8_1                  C   4H   8          G    300.00   3500.00 1800.00      1
 1.03330449e+01 1.99470428e-02-7.40538998e-06 1.30472507e-09-9.09598189e-14    2
-5.56551437e+03-3.07722296e+01-6.91489888e-01 4.44460090e-02-2.78211951e-05    3
 8.86613439e-09-1.14115556e-12-1.59668184e+03 2.88948525e+01                   4
C4H8_2                  C   4H   8          G    300.00   3500.00 1800.00      1
 5.15907399e+00 2.89997694e-02-1.32974598e-05 2.96139017e-09-2.60424474e-13    2
-4.76704683e+03-3.39008062e+00 5.60608454e-01 3.92185817e-02-2.18131368e-05    3
 6.11534459e-09-6.98473698e-13-3.11159924e+03 2.14977742e+01                   4
C4H7_13                 C   4H   7          G    300.00   3500.00 1420.00      1
 8.33017754e+00 1.98466503e-02-6.37614061e-06 5.28652768e-10 3.81103734e-14    2
 1.19533850e+04-1.83767119e+01-1.12550124e+00 4.64823652e-02-3.45124591e-05    3
 1.37381920e-08-2.28751273e-12 1.46387978e+04 3.05571711e+01                   4
C4H7_14                 C   4H   7          G    300.00   3500.00 1530.00      1
 8.45916998e+00 1.93968541e-02-5.99075605e-06 3.82147970e-10 5.73994809e-14    2
 1.98988324e+04-1.80212793e+01-3.29329052e-01 4.23733221e-02-2.85167051e-05    3
 1.01973763e-08-1.54639600e-12 2.25881131e+04 2.81156134e+01                   4
C4H6                    C   4H   6          G    200.00   3500.00 1800.00      1
 9.30872521e+00 1.50139591e-02-5.06688177e-06 7.84148097e-10-4.70262839e-14    2
 8.60829987e+03-2.47389586e+01 4.65225109e-01 3.46661815e-02-2.14437338e-05    3
 6.84964885e-09-8.89456944e-13 1.17919599e+04 2.31239087e+01                   4
C4H5                    C   4H   5          G    300.00   3500.00 1800.00      1
 1.90192654e+01-1.91794386e-03 4.88814514e-06-1.91833948e-09 2.24139237e-13    2
 3.48592740e+04-7.70423351e+01-2.01742308e-01 4.07954066e-02-3.07063136e-05    3
 1.12647934e-08-1.60685144e-12 4.17788367e+04 2.69857683e+01                   4
C4H4                    C   4H   4          G    300.00   3500.00 1290.00      1
 7.65777119e+00 1.26498258e-02-4.62248950e-06 7.81217082e-10-5.07629107e-14    2
 3.13366016e+04-1.49692661e+01 7.13119716e-01 3.41836288e-02-2.96617954e-05    3
 1.37214268e-08-2.55855550e-12 3.31283217e+04 2.03030643e+01                   4
C4H3                    C   4H   3          G    300.00   3500.00 1590.00      1
 1.30208969e+01 1.53590364e-03 1.80568200e-06-9.30237204e-10 1.18077198e-13    2
 6.01811751e+04-4.25791500e+01 2.34662666e+00 2.83894138e-02-2.35278181e-05    3
 9.69177543e-09-1.55205057e-12 6.35755930e+04 1.38680560e+01                   4
C4H2                    C   4H   2          G    300.00   3500.00  720.00      1
 7.13414735e+00 1.00526308e-02-4.84819206e-06 1.14884604e-09-1.07722834e-13    2
 5.27577824e+04-1.36443516e+01-4.34754087e-01 5.21020832e-02-9.24512179e-05    3
 8.22627589e-08-2.82722759e-11 5.38477042e+04 2.03848077e+01                   4
C6H6                    C   6H   6          G    300.00   3500.00 1410.00      1
 1.15055544e+01 1.99961045e-02-7.07935460e-06 1.10673028e-09-6.24178899e-14    2
 4.11452290e+03-4.24445091e+01-6.99882110e+00 7.24907868e-02-6.29247613e-05    3
 2.75111779e-08-4.74405754e-12 9.33275680e+03 5.31863191e+01                   4
FULVENE                 C   6H   6          G    200.00   3500.00 1560.00      1
 1.44152220e+01 1.47750067e-02-3.90939181e-06 2.82308156e-10 1.62511622e-14    2
 1.91167581e+04-5.54965184e+01-3.67012639e+00 6.11476948e-02-4.84985149e-05    3
 1.93374890e-08-3.03746371e-12 2.47593868e+04 3.97971310e+01                   4
C6H5                    C   6H   5          G    300.00   3500.00 1390.00      1
 1.12331261e+01 1.77269649e-02-6.33615682e-06 1.00236865e-09-5.75481750e-14    2
 3.49856300e+04-3.80075865e+01-6.76261385e+00 6.95132669e-02-6.22206553e-05    3
 2.78054854e-08-4.87825263e-12 3.99884457e+04 5.47375207e+01                   4
C5H6                    C   5H   6          G    200.00   3500.00 1630.00      1
 1.35786764e+01 1.28174257e-02-3.11961936e-06 1.29368393e-10 2.76958521e-14    2
 9.43770579e+03-5.26289052e+01-4.05866643e+00 5.60992486e-02-4.29495178e-05    3
 1.64197154e-08-2.47082363e-12 1.51874796e+04 4.10783319e+01                   4
C5H5                    C   5H   5          G    300.00   3500.00  700.00      1
 4.01652588e+00 2.68451887e-02-1.26423015e-05 2.78092323e-09-2.35299425e-13    2
 2.91110159e+04 1.44025731e+00-2.58737467e+00 6.45817633e-02-9.35063898e-05    3
 7.97943407e-08-2.77400914e-11 3.00355619e+04 3.09448142e+01                   4
MCPTD                   C   6H   8          G    300.00   3500.00 1470.00      1
 1.21408016e+01 2.34281374e-02-7.98702759e-06 1.18908391e-09-6.20202054e-14    2
 7.23040214e+03-4.21606537e+01-5.49894699e+00 7.14274534e-02-5.69659215e-05    3
 2.34017342e-08-3.83968182e-12 1.24164882e+04 4.97368686e+01                   4
C10H8                   C  10H   8          G    300.00   3500.00 1370.00      1
 1.51184828e+01 3.89675576e-02-1.78248658e-05 3.92092279e-09-3.39215689e-13    2
 1.01121562e+04-6.09041102e+01-8.71832426e+00 1.08564074e-01-9.40254318e-05    3
 4.10014902e-08-7.10574258e-12 1.66434413e+04 6.15987877e+01                   4
NC5H12                  C   5H  12          G    300.00   3500.00 1800.00      1
 2.12559082e+01 1.49866375e-02-1.56738310e-06-4.84518439e-10 9.00436513e-14    2
-2.80668702e+04-9.05497671e+01-1.97000865e+00 6.65997861e-02-4.45783403e-05    3
 1.54454657e-08-2.12245414e-12-1.97055401e+04 3.51537401e+01                   4
NC5H11                  C   5H  11          G    300.00   3500.00 1800.00      1
 6.93193785e+00 3.75440987e-02-1.65478566e-05 3.53633643e-09-2.99976701e-13    2
-1.73087074e+03-8.88710671e+00-3.57520449e+00 6.08933039e-02-3.60055276e-05    3
 1.07428812e-08-1.30088570e-12 2.05170050e+03 4.79797395e+01                   4
NEOC5H12                C   5H  12          G    300.00   3500.00 1700.00      1
 1.58220811e+01 2.73824077e-02-1.01392581e-05 1.77707009e-09-1.22756971e-13    2
-2.85197010e+04-6.62488521e+01-2.62463459e+00 7.07864445e-02-4.84369376e-05    3
 1.67957680e-08-2.33138901e-12-2.22478177e+04 3.25342362e+01                   4
NEOC5H11                C   5H  11          G    300.00   3500.00 1670.00      1
 1.43276289e+01 2.66845577e-02-1.02158264e-05 1.86929104e-09-1.35803312e-13    2
-2.94216421e+03-5.15145769e+01-1.29689709e+00 6.41085720e-02-4.38302105e-05    3
 1.52882069e-08-2.14462305e-12 2.27642747e+03 3.18773552e+01                   4
NC5H10                  C   5H  10          G    300.00   3500.00 1800.00      1
 1.11929736e+01 2.82582223e-02-1.13863841e-05 2.22526491e-09-1.74280993e-13    2
-1.02483443e+04-3.39253533e+01-6.89551965e-01 5.46638348e-02-3.33910611e-05    3
 1.03751453e-08-1.30620882e-12-5.97063504e+03 3.03853541e+01                   4
NC5H9_3                 C   5H   9          G    300.00   3500.00 1800.00      1
 9.88287390e+00 2.86275350e-02-1.23662428e-05 2.58308509e-09-2.14520963e-13    2
 7.14211639e+03-2.81379758e+01-9.61360662e-01 5.27258341e-02-3.24481586e-05    3
 1.00208317e-08-1.24754133e-12 1.10460408e+04 3.05532839e+01                   4
B1M2                    C   5H  10          G    300.00   3500.00 1800.00      1
 1.21299340e+01 2.65376145e-02-1.02995525e-05 1.93064538e-09-1.45051208e-13    2
-1.11266091e+04-3.96207198e+01-6.39002025e-01 5.49130280e-02-3.39457304e-05    3
 1.06884890e-08-1.36141838e-12-6.52979211e+03 2.94874259e+01                   4
B1M3                    C   5H  10          G    300.00   3500.00 1800.00      1
 1.31681365e+01 2.49963287e-02-9.30063098e-06 1.64277853e-09-1.14892348e-13    2
-1.09953810e+04-4.60629131e+01-8.44094903e-01 5.61346208e-02-3.52492077e-05    3
 1.12533625e-08-1.44969568e-12-5.95097767e+03 2.97742066e+01                   4
B2M2                    C   5H  10          G    300.00   3500.00 1800.00      1
 9.73411699e+00 3.08235227e-02-1.30972997e-05 2.71635425e-09-2.25270435e-13    2
-1.14704814e+04-2.74877025e+01 1.14407401e-01 5.22006552e-02-3.09115767e-05    3
 9.31423462e-09-1.14164271e-12-8.00738598e+03 2.45761726e+01                   4
CYC5H8                  C   5H   8          G    300.00   3500.00 1460.00      1
 8.43099916e+00 2.71082714e-02-1.07932861e-05 1.95387665e-09-1.31111174e-13    2
-1.09862538e+03-2.37608448e+01-6.56863981e+00 6.82031726e-02-5.30140751e-05    3
 2.12327757e-08-3.43229252e-12 3.28126920e+03 5.42801525e+01                   4
C5H7                    C   5H   7          G    300.00   3500.00 1430.00      1
 7.72404526e+00 2.56072196e-02-8.76350315e-06 8.66193956e-10 3.30416653e-14    2
 2.30808142e+04-1.69352935e+01 2.31765046e-01 4.65646468e-02-3.07468184e-05    3
 1.11148258e-08-1.75867718e-12 2.52236063e+04 2.18904247e+01                   4
LC5H8                   C   5H   8          G    300.00   3500.00 1430.00      1
 8.95829160e+00 2.51033002e-02-8.43679233e-06 8.19905618e-10 3.11426514e-14    2
 4.67953300e+03-2.40439629e+01 1.19183501e+00 4.68276543e-02-3.12245763e-05    3
 1.14435811e-08-1.82614328e-12 6.90073958e+03 1.62025638e+01                   4
DIALLYL                 C   6H  10          G    300.00   3500.00 1670.00      1
 1.46885479e+01 2.58341295e-02-9.34005191e-06 1.60362032e-09-1.08722036e-13    2
 2.72208305e+03-5.11904321e+01-8.93391062e-01 6.31561390e-02-4.28628150e-05    3
 1.49859609e-08-2.11206643e-12 7.92645066e+03 3.19742028e+01                   4
RC6H9A                  C   6H   9          G    300.00   3500.00 1310.00      1
 1.02179198e+01 3.31131696e-02-1.50182300e-05 3.28859653e-09-2.83959224e-13    2
 2.30740211e+04-2.53806643e+01-2.61882183e+00 7.23093274e-02-5.98993266e-05    3
 2.61288493e-08-4.64278609e-12 2.64372474e+04 4.00154625e+01                   4
CYC6H8                  C   6H   8          G    300.00   3500.00 1490.00      1
 8.66772261e+00 3.45074855e-02-1.63846780e-05 3.69260974e-09-3.24421025e-13    2
 5.74022138e+03-2.73566208e+01-6.91358136e+00 7.63364895e-02-5.84944135e-05    3
 2.25336547e-08-3.48567018e-12 1.03834500e+04 5.40276160e+01                   4
CYC6H10                 C   6H  10          G    300.00   3500.00 1800.00      1
 1.51624858e+01 2.76360017e-02-1.05259858e-05 1.89586361e-09-1.35054774e-13    2
-9.29985244e+03-6.25064559e+01-6.01517655e+00 7.46974737e-02-4.97438791e-05    3
 1.64210093e-08-2.15243611e-12-1.67589399e+03 5.21114707e+01                   4
RCYC6H9                 C   6H   9          G    300.00   3500.00 1800.00      1
 1.41670463e+01 2.75651338e-02-1.13337615e-05 2.23021652e-09-1.74683445e-13    2
 7.93866332e+03-5.85441979e+01-6.48639356e+00 7.34616669e-02-4.95808724e-05    3
 1.63958131e-08-2.14212742e-12 1.53739017e+04 5.32365273e+01                   4
CYC6H12                 C   6H  12          G    300.00   3500.00 1800.00      1
 1.12578097e+01 4.34354098e-02-2.02455774e-05 4.54245292e-09-4.01195170e-13    2
-2.30439963e+04-4.47863376e+01-9.43363126e+00 8.94163897e-02-5.85630607e-05    3
 1.87341134e-08-2.37225913e-12-1.55950776e+04 6.72000574e+01                   4
CYC6H11                 C   6H  11          G    300.00   3500.00 1800.00      1
 1.12879191e+01 3.94798364e-02-1.80474738e-05 3.97976998e-09-3.47933572e-13    2
 4.69934404e+02-4.15743644e+01-9.20200373e+00 8.50129981e-02-5.59917752e-05    3
 1.80332150e-08-2.29980093e-12 7.84630661e+03 6.93213721e+01                   4
NC6H12                  C   6H  12          G    300.00   3500.00 1780.00      1
 2.80951655e+01 5.24635940e-03 6.43208140e-06-3.19131390e-09 4.01093698e-13    2
-1.79767847e+04-1.24497292e+02-1.85358315e+00 7.25469181e-02-5.02818725e-05    3
 1.80498674e-08-2.58221828e-12-7.31503024e+03 3.72569567e+01                   4
NC7H16                  C   7H  16          G    300.00   3500.00 1800.00      1
 3.10696120e+01 1.73458864e-02-4.57663866e-07-1.06280964e-09 1.59098857e-13    2
-3.76541592e+04-1.40920498e+02-2.76912812e+00 9.25430866e-02-6.31219974e-05    3
 2.21462028e-08-3.06437509e-12-2.54722127e+04 4.22218230e+01                   4
NC7H15                  C   7H  15          G    300.00   3500.00 1800.00      1
 1.58938298e+01 4.32851195e-02-1.83429598e-05 3.81524631e-09-3.18291961e-13    2
-8.33589206e+03-5.34387877e+01-1.03213606e+00 8.08983770e-02-4.96873411e-05    3
 1.54242764e-08-1.93065725e-12-2.24254435e+03 3.81680706e+01                   4
NC7H14                  C   7H  14          G    300.00   3500.00 1800.00      1
 1.82668105e+01 3.59607889e-02-1.37346402e-05 2.52229049e-09-1.85248240e-13    2
-1.87497345e+04-6.92309266e+01-1.22797310e+00 7.92825302e-02-4.98360912e-05    3
 1.58931983e-08-2.04231877e-12-1.17316124e+04 3.62789089e+01                   4
NC7H13                  C   7H  13          G    300.00   3500.00 1800.00      1
 9.88287390e+00 2.86275350e-02-1.23662428e-05 2.58308509e-09-2.14520963e-13    2
 7.14211639e+03-2.81379758e+01-9.61360662e-01 5.27258341e-02-3.24481586e-05    3
 1.00208317e-08-1.24754133e-12 1.10460408e+04 3.05532839e+01                   4
IC8H18                  C   8H  18          G    300.00   3500.00 1390.00      1
 2.06155885e+01 4.43694094e-02-1.35968858e-05 1.75327621e-09-6.83090867e-14    2
-3.76580614e+04-8.42148794e+01-5.96912082e+00 1.20872170e-01-9.61538218e-05    3
 4.13489290e-08-7.18982937e-12-3.02675122e+04 5.27954202e+01                   4
IC8H17                  C   8H  17          G    300.00   3500.00 1530.00      1
 2.65104230e+01 3.01796816e-02-5.82184988e-06 1.42085775e-11 7.60110768e-14    2
-1.80373025e+04-1.14981197e+02-3.32961207e+00 1.08192845e-01-8.23053436e-05    3
 3.33403496e-08-5.36943681e-12-8.90625182e+03 4.16697270e+01                   4
IC8H16                  C   8H  16          G    300.00   3500.00 1400.00      1
 1.88616063e+01 4.14292819e-02-1.28170543e-05 1.66806735e-09-6.58961701e-14    2
-2.24684067e+04-7.38514297e+01-5.35586582e+00 1.10622059e-01-8.69521730e-05    3
 3.69705048e-08-6.36990286e-12-1.56875145e+04 5.11323812e+01                   4
DIMEPTD                 C   7H  12          G    300.00   3500.00 1310.00      1
 1.53755546e+01 3.27318282e-02-1.05955708e-05 1.52102629e-09-7.69415904e-14    2
-6.19682930e+03-5.37226047e+01-1.29247814e+00 8.36265847e-02-6.88720095e-05    3
 3.11782470e-08-5.73671653e-12-1.82980473e+03 3.11918394e+01                   4
C7H8                    C   7H   8          G    200.00   3500.00 1740.00      1
 1.92535108e+01 1.64137602e-02-3.61135948e-06 2.27424890e-11 5.04456794e-14    2
-3.67626229e+03-8.27561068e+01-4.42382865e+00 7.08444256e-02-5.05343469e-05    3
 1.80008986e-08-2.53262272e-12 4.56345183e+03 4.45878951e+01                   4
C7H7                    C   7H   7          G    200.00   3500.00 1600.00      1
 1.77148781e+01 1.72901839e-02-4.74309316e-06 3.88421745e-10 1.27959347e-14    2
 1.68881058e+04-7.24712964e+01-3.23806381e+00 6.96725387e-02-5.38515508e-05    3
 2.08502791e-08-3.18436927e-12 2.35930472e+04 3.84624951e+01                   4
CH3C6H4                 C   7H   7          G    200.00   3500.00 1730.00      1
 1.83842182e+01 1.52647348e-02-3.43004339e-06 5.73661650e-11 4.21798063e-14    2
 2.84624024e+04-7.44700925e+01-2.82564598e+00 6.43048832e-02-4.59504033e-05    3
 1.64428613e-08-2.32566631e-12 3.58010154e+04 3.94808224e+01                   4
BENZYNE                 C   6H   4          G    300.00   3500.00 1400.00      1
 1.09465819e+01 1.50373245e-02-5.27844957e-06 8.14607575e-10-4.49073360e-14    2
 5.03301418e+04-3.53782935e+01-3.73796174e+00 5.69931634e-02-5.02311341e-05    3
 2.22206478e-08-3.86741452e-12 5.44418140e+04 4.04070822e+01                   4
RBBENZ                  C  14H  13          G    300.00   3500.00 1750.00      1
 5.34298872e+01-2.73976091e-03 1.40930518e-05-5.29858386e-09 5.98002536e-13    2
 9.33192271e+03-2.64139662e+02-8.67312060e+00 1.39209971e-01-1.07578147e-04    3
 4.10523491e-08-6.02355932e-12 3.10679755e+04 7.02252758e+01                   4
STILB                   C  14H  12          G    300.00   3500.00 1470.00      1
 3.31295359e+01 3.16424147e-02-7.88066870e-06 4.81370280e-10 4.43949941e-14    2
 1.37146851e+04-1.52659599e+02-1.11031623e+01 1.52003498e-01-1.30698101e-04    3
 5.61808860e-08-9.42831176e-12 2.67190984e+04 7.77787968e+01                   4
C7H6                    C   7H   6          G    300.00   3500.00 1290.00      1
 1.11282362e+01 2.73165807e-02-1.25329645e-05 2.76951413e-09-2.40721375e-13    2
 3.69620905e+04-3.50553513e+01-3.97785296e+00 7.41571673e-02-6.69987629e-05    3
 3.09172135e-08-5.69570188e-12 4.08594615e+04 4.16694449e+01                   4
C7H5                    C   7H   5          G    300.00   3500.00 1250.00      1
 1.21079560e+01 2.22665290e-02-9.87308079e-06 2.11666746e-09-1.79360812e-13    2
 5.15977924e+04-3.78517160e+01-2.81419579e+00 7.00174146e-02-6.71741435e-05    3
 3.26772342e-08-6.29147417e-12 5.53283304e+04 3.74688223e+01                   4
CYC5H4                  C   5H   4          G    200.00   3500.00 1310.00      1
 6.52292971e+00 1.75112092e-02-7.24525150e-06 1.36813992e-09-9.77801509e-14    2
 6.01459585e+04-1.09295493e+01-1.67820643e+00 4.25528463e-02-3.59188817e-05    3
 1.59603181e-08-2.88254699e-12 6.22946562e+04 3.08507212e+01                   4
C5H3                    C   5H   3          G    300.00   3500.00 1370.00      1
 1.06729929e+01 9.74586302e-03-3.33881730e-06 5.09387247e-10-2.86889361e-14    2
 6.39774214e+04-2.94129104e+01 3.35962353e+00 3.10987662e-02-2.67179083e-05    3
 1.18860739e-08-2.10472664e-12 6.59812846e+04 8.17219633e+00                   4
C5H2                    C   5H   2          G    300.00   3500.00 1260.00      1
 1.08586495e+01 8.25356562e-03-3.15379453e-06 5.51063161e-10-3.71272440e-14    2
 7.89908994e+04-3.35264726e+01 1.78531794e+00 3.70577929e-02-3.74445412e-05    3
 1.86943154e-08-3.63697888e-12 8.12773789e+04 1.23440607e+01                   4
LC6H6                   C   6H   6          G    300.00   3500.00 1250.00      1
 1.28863876e+01 1.90072460e-02-7.30992555e-06 1.31482494e-09-9.21385778e-14    2
 3.55364843e+04-4.09021933e+01-1.05889384e+00 6.36321466e-02-6.08598063e-05    3
 2.98747613e-08-5.80412586e-12 3.90228046e+04 2.94875281e+01                   4
C6H4C2H3                C   8H   7          G    200.00   3500.00 1580.00      1
 1.99256075e+01 1.67315530e-02-4.18312961e-06 2.15370099e-10 3.07179808e-14    2
 3.89930312e+04-8.19571079e+01-3.96125911e+00 7.72046330e-02-6.15942816e-05    3
 2.44394849e-08-3.80221157e-12 4.65412811e+04 4.42096620e+01                   4