! generator: yaml2ck
! cantera-version: 3.2.0
! date: Sun, 08 Mar 2026 18:35:53 +0100
! input-files: ['reduced.yaml']
!

THERMO
200.000   1000.000  6000.000

AR REF ELEMENT    g 5/97AR 1.   0.   0.   0.G   200.000  6000.000 1000.0       1
 2.50000000E+00 0.00000000E+00 0.00000000E+00 0.00000000E+00 0.00000000E+00    2
-7.45375000E+02 4.37967491E+00 2.50000000E+00 0.00000000E+00 0.00000000E+00    3
 0.00000000E+00 0.00000000E+00-7.45375000E+02 4.37967491E+00 0.00000000E+00    4
H                 L 6/94H   1    0    0    0G   200.000  6000.000 1000.0       1
 0.25000000E+01 0.00000000E+00 0.00000000E+00 0.00000000E+00 0.00000000E+00    2
 0.25473660E+05-0.44668285E+00 0.25000000E+01 0.00000000E+00 0.00000000E+00    3
 0.00000000E+00 0.00000000E+00 0.25473660E+05-0.44668285E+00 0.26219035E+05    4
H2  REF ELEMENT   T 2/17H  2.   0.   0.   0.G   200.000  6000.000 1000.0       1
 2.98711895E+00 7.36069465E-04-9.00982609E-08-7.41224720E-13 6.58618037E-16    2
-8.35448659E+02-1.33268877E+00 3.50207268E+00 8.65475654E-05-2.63683344E-07    3
 3.37306621E-10-2.92359706E-14-1.04631279E+03-4.25875759E+00 0.00000000E+00    4
CH4    RRHO       g 8/99C  1.H  4.   0.   0.G   200.000  6000.000 1000.0       1
 1.91178600E+00 9.60267960E-03-3.38387841E-06 5.38797240E-10-3.19306807E-14    2
-1.00992136E+04 8.48241861E+00 5.14825732E+00-1.37002410E-02 4.93749414E-05    3
-4.91952339E-08 1.70097299E-11-1.02453222E+04-4.63322726E+00-8.97226656E+03    4
CH3               IU0702C  1.H  3.   0.   0.G   200.000  6000.000 1000.0       1
 0.29781206E+01 0.57978520E-02-0.19755800E-05 0.30729790E-09-0.17917416E-13    2
 0.16509513E+05 0.47224799E+01 0.36571797E+01 0.21265979E-02 0.54583883E-05    3
-0.66181003E-08 0.24657074E-11 0.16422716E+05 0.16735354E+01 0.17643935E+05    4
C                 L 7/88C   1    0    0    0G   200.000  6000.000 1000.0       1
 0.26055830E+01-0.19593434E-03 0.10673722E-06-0.16423940E-10 0.81870580E-15    2
 0.85411742E+05 0.41923868E+01 0.25542395E+01-0.32153772E-03 0.73379223E-06    3
-0.73223487E-09 0.26652144E-12 0.85442681E+05 0.45313085E+01 0.86195097E+05    4
CH                IU3/03C  1.H  1.   0.   0.G   200.000  6000.000 1000.0       1
 0.25209369E+01 0.17653639E-02-0.46147660E-06 0.59289675E-10-0.33474501E-14    2
 0.70994878E+05 0.74051829E+01 0.34897583E+01 0.32432160E-03-0.16899751E-05    3
 0.31628420E-08-0.14061803E-11 0.70660755E+05 0.20842841E+01 0.71706297E+05    4
CH2               IU3/03C  1.H  2.   0.   0.G   200.000  6000.000 1000.0       1
 3.11049513E+00 3.73779517E-03-1.37371977E-06 2.23054839E-10-1.33567178E-14    2
 4.59715953E+04 4.62796405E+00 3.84261832E+00-7.36676871E-06 6.16970693E-06    3
-6.96689962E-09 2.64620979E-12 4.58631528E+04 1.27584470E+00 4.70502772E+04    4
C2H6              g 8/88C  2.H  6.   0.   0.G   200.000  6000.000 1000.0       1
 4.04666411E+00 1.53538802E-02-5.47039485E-06 8.77826544E-10-5.23167531E-14    2
-1.24473499E+04-9.68698313E-01 4.29142572E+00-5.50154901E-03 5.99438458E-05    3
-7.08466469E-08 2.68685836E-11-1.15222056E+04 2.66678994E+00-1.00849652E+04    4
C2H5 ethyl radic  IU1/07C  2.H  5.   0.   0.G   200.000  6000.000 1000.0       1
 4.32195633E+00 1.23930542E-02-4.39680960E-06 7.03519917E-10-4.18435239E-14    2
 1.21759475E+04 1.71103809E-01 4.24185905E+00-3.56905235E-03 4.82667202E-05    3
-5.85401009E-08 2.25804514E-11 1.29690344E+04 4.44703782E+00 1.43965189E+04    4
C2H4              g 1/00C  2.H  4.   0.   0.G   200.000  6000.000 1000.0       1
 3.99182724E+00 1.04833908E-02-3.71721342E-06 5.94628366E-10-3.53630386E-14    2
 4.26865851E+03-2.69081762E-01 3.95920063E+00-7.57051373E-03 5.70989993E-05    3
-6.91588352E-08 2.69884190E-11 5.08977598E+03 4.09730213E+00 6.31426266E+03    4
C2H3  Vinyl Radi  ATcT/AC  2.H  3.   0.   0.G   200.000  6000.000 1000.0       1
 4.15026763E+00 7.54021341E-03-2.62997847E-06 4.15974048E-10-2.45407509E-14    2
 3.38566380E+04 1.72812235E+00 3.36377642E+00 2.65765722E-04 2.79620704E-05    3
-3.72986942E-08 1.51590176E-11 3.44749589E+04 7.91510092E+00 3.56701718E+04    4
C2H2 acetylene    g 1/91C  2.H  2.   0.   0.G   200.000  6000.000 1000.0       1
 4.65878489E+00 4.88396667E-03-1.60828888E-06 2.46974544E-10-1.38605959E-14    2
 2.57594042E+04-3.99838194E+00 8.08679682E-01 2.33615762E-02-3.55172234E-05    3
 2.80152958E-08-8.50075165E-12 2.64289808E+04 1.39396761E+01 2.74459950E+04    4
C2H               T 5/10C  2.H  1.   0.   0.G   200.000  6000.000 1000.0       1
 3.66270248E+00 3.82492252E-03-1.36632500E-06 2.13455040E-10-1.23216848E-14    2
 6.71683790E+04 3.92205792E+00 2.89867676E+00 1.32988489E-02-2.80733327E-05    3
 2.89484755E-08-1.07502351E-11 6.70616050E+04 6.18547632E+00 6.83210436E+04    4
C3H8              g 2/00C  3.H  8.   0.   0.G   200.000  6000.000 1000.0       1
 6.66919760E+00 2.06108751E-02-7.36512349E-06 1.18434262E-09-7.06914630E-14    2
-1.62754066E+04-1.31943379E+01 4.21093013E+00 1.70886504E-03 7.06530164E-05    3
-9.20060565E-08 3.64618453E-11-1.43810883E+04 5.61004451E+00-1.25900384E+04    4
C3H4P      E      T 2/90H   4C   3    0    0G   200.000  6000.000 1000.0       1
 0.60252400E+01 0.11336542E-01-0.40223391E-05 0.64376063E-09-0.38299635E-13    2
 0.19620942E+05-0.86043785E+01 0.26803869E+01 0.15799651E-01 0.25070596E-05    3
-0.13657623E-07 0.66154285E-11 0.20802374E+05 0.98769351E+01 0.22302059E+05    4
C3H4A             L 8/89C   3H   4    0    0G   200.000  6000.000 1000.0       1
 0.63168722E+01 0.11133728E-01-0.39629378E-05 0.63564238E-09-0.37875540E-13    2
 0.20117495E+05-0.10995766E+02 0.26130445E+01 0.12122575E-01 0.18539880E-04    3
-0.34525149E-07 0.15335079E-10 0.21541567E+05 0.10226139E+02 0.22962267E+05    4
C3H3 allenyl      T06/09C  3.H  3.   0.   0.G   200.000  6000.000 1000.0       1
 6.32980309E+00 8.34146204E-03-2.93568490E-06 4.67354593E-10-2.77041642E-14    2
 3.92839304E+04-8.87103848E+00 1.31886167E+00 2.13679507E-02-1.10465018E-05    3
-3.52008462E-09 4.05500469E-12 4.06655512E+04 1.70807075E+01 4.19058711E+04    4
C3H2 cis  HCCCH   T 6/16C  3.H  2.   0.   0.G   200.000  6000.000 1000.0       1
 6.58116820E+00 5.49385714E-03-1.92309346E-06 3.05002210E-10-1.80314731E-14    2
 6.97066904E+04-9.98818749E+00 2.84183774E+00 1.93147250E-02-2.27041872E-05    3
 1.51236123E-08-4.13708531E-12 7.05817764E+04 8.50209796E+00 7.21148931E+04    4
C4H6  1,3-butadienT05/04C  4.H  6.   0.   0.G   200.000  6000.000 1000.0       1
 7.62637466E+00 1.72523403E-02-6.09184911E-06 9.70800102E-10-5.76169721E-14    2
 9.55306395E+03-1.48325259E+01 4.10599669E+00 5.05575563E-03 5.83885454E-05    3
-8.05950198E-08 3.27447711E-11 1.15092468E+04 8.42978067E+00 1.33302095E+04    4
C4H4  1-butene-3  T06/04C  4.H  4.   0.   0.G   200.000  6000.000 1000.0       1
 7.98456038E+00 1.20558816E-02-4.23587475E-06 6.73646140E-10-3.99059864E-14    2
 3.11993029E+04-1.67958975E+01 1.37368786E+00 2.88801256E-02-1.46863874E-05    3
-3.91045446E-09 4.78133572E-12 3.30633344E+04 1.75941274E+01 3.46213066E+04    4
C4H3 i-2yl Rad    T06/04C  4.H  3.   0.   0.G   200.000  6000.000 1000.0       1
 8.51181244E+00 9.03337808E-03-3.17602594E-06 5.05276458E-10-2.99379699E-14    2
 5.71046116E+04-1.51017769E+01 3.37964170E+00 2.70498840E-02-2.90761572E-05    3
 1.83027765E-08-4.81164203E-12 5.83688723E+04 1.05464883E+01 6.03558069E+04    4
C4H2 1,3-Butadiyn T 2/16C  4.H  2.   0.   0.G   200.000  6000.000 1000.0       1
 8.65615648E+00 6.74465042E-03-2.36868410E-06 3.76553454E-10-2.22995205E-14    2
 5.22459295E+04-2.18462806E+01-5.02389168E-01 5.25164044E-02-9.29945578E-05    3
 8.17206506E-08-2.73537313E-11 5.38574848E+04 2.06780532E+01 5.53688672E+04    4
C6H6 BENZENE      g 6/01C  6.H  6.   0.   0.G   200.000  6000.000 1000.0       1
 1.10809576E+01 2.07176746E-02-7.52145991E-06 1.22320984E-09-7.36091279E-14    2
 4.30641035E+03-4.00413310E+01 5.04818632E-01 1.85020642E-02 7.38345881E-05    3
-1.18135741E-07 5.07210429E-11 8.55247913E+03 2.16412893E+01 9.96811598E+03    4
C6H5 phenyl radi  T07/10C  6.H  5.   0.   0.G   200.000  6000.000 1000.0       1
 1.09540673E+01 1.82072569E-02-6.63331157E-06 1.08125690E-09-6.51736617E-14    2
 3.51098413E+04-3.64320659E+01 4.91024498E-01 1.72669813E-02 7.02556406E-05    3
-1.13389805E-07 4.89202543E-11 3.92340510E+04 2.42505364E+01 4.05676342E+04    4
C5H5 cyPentadiene T05/10C  5.H  5.   0.   0.G   200.000  6000.000 1000.0       1
 1.02615305E+01 1.55578917E-02-5.54166182E-06 8.89865066E-10-5.30836089E-14    2
 2.69644257E+04-2.92211926E+01 1.63934946E+00 1.69922044E-02 5.28961483E-05    3
-9.02286424E-08 3.98154820E-11 3.01960941E+04 2.00912008E+01 3.17479394E+04    4
C10H8 Naphthalene T 7/98C  10H   8    0    0G   200.000  6000.000 1000.0       1
 1.86129884E+01 3.04494175E-02-1.11224825E-05 1.81615474E-09-1.09601281E-13    2
 8.91578988E+03-8.00230396E+01-1.04919475E+00 4.62970781E-02 7.07591636E-05    3
-1.38408111E-07 6.20475407E-11 1.59848987E+04 3.02121626E+01 1.81107678E+04    4
C7H7 Benzyl rad   T08/90C   7H   7    0    0G   200.000  6000.000 1000.0       1
 0.14043980E+02 0.23493873E-01-0.85375367E-05 0.13890841E-08-0.83614420E-13    2
 0.18564203E+05-0.51665589E+02 0.48111540E+00 0.38512832E-01 0.32861492E-04    3
-0.76972721E-07 0.35423068E-10 0.23307027E+05 0.23548820E+02 0.25317186E+05    4
C7H6                    C   7H   6          G300.000   3500.000  1290.000      1
 1.11282362E+01 2.73165807E-02-1.25329645E-05 2.76951413E-09-2.40721375E-13    2
 3.69620905E+04-3.50553513E+01-3.97785296E+00 7.41571673E-02-6.69987629E-05    3
 3.09172135E-08-5.69570188E-12 4.08594615E+04 4.16694449E+01                   4
C6H5C2H                 C   8H   6          G200.000   3500.000  1280.000      1
 1.52608076E+01 2.33328927E-02-9.12947230E-06 1.67060897E-09-1.19620450E-13    2
 3.14643486E+04-5.61979008E+01-2.98097334E+00 8.03384582E-02-7.59328693E-05    3
 3.64640449E-08-6.91521341E-12 3.61342445E+04 3.63113150E+01                   4
C6H4C2H                 C   8H   5          G200.000   3500.000  1410.000      1
 1.60102852E+01 1.80276839E-02-6.10631287E-06 8.89485624E-10-4.39310921E-14    2
 6.01004863E+04-5.91795508E+01-2.59308039E+00 7.08031891E-02-6.22504674E-05    3
 2.74351852E-08-4.75061541E-12 6.53466354E+04 3.69628594E+01                   4
C10H7                   C  10H   7          G200.000   3500.000  1490.000      1
 2.12397127E+01 2.27484190E-02-6.96640086E-06 8.04033892E-10-1.68765826E-14    2
 3.76445830E+04-9.11799918E+01-6.45168838E+00 9.70877508E-02-8.18046543E-05    3
 3.42887110E-08-5.63511100E-12 4.58966205E+04 5.34576808E+01                   4
C12H8                   C  12H   8          G200.000   3500.000  1570.000      1
 2.77000801E+01 2.26169409E-02-5.57154154E-06 2.34725134E-10 5.00956725E-14    2
 1.79557632E+04-1.32407942E+02-8.95027490E+00 1.15993641E-01-9.47849497E-05    3
 3.81172764E-08-5.98215771E-12 2.94639746E+04 6.09409166E+01                   4
C12H7                   C  12H   7          G200.000   3500.000  1550.000      1
 2.72643903E+01 2.07706175E-02-5.09002113E-06 1.94274019E-10 4.95146521E-14    2
 5.03500896E+04-1.28964295E+02-8.21375630E+00 1.12327125E-01-9.36930927E-05    3
 3.83031220E-08-6.09707373E-12 6.13483151E+04 5.77457270E+01                   4
C14H9                   C  14H   9          G298.150   3500.000  1380.000      1
 2.51054802E+01 4.12375730E-02-1.71094078E-05 3.35330064E-09-2.55891906E-13    2
 4.20489545E+04-1.12231128E+02-1.15966331E+01 1.47620510E-01-1.32743035E-04    3
 5.92149564E-08-1.03757571E-11 5.21787378E+04 7.66564976E+01                   4
C16H10                  C  16H  10          G200.000   3500.000  1560.000      1
 3.81807346E+01 2.83119223E-02-6.73305412E-06 1.57165249E-10 8.21178664E-14    2
 9.09208909E+03-1.88517714E+02-1.17161985E+01 1.56252776E-01-1.29753106E-04    3
 5.27298370E-08-8.34298979E-12 2.46599322E+04 7.43946040E+01                   4
C16H9                   C  16H   9          G300.000   3500.000  1240.000      1
 1.61933978E+01 6.96117135E-02-3.71054120E-05 9.43826012E-09-9.32515878E-13    2
 4.61008358E+04-6.54256239E+01-1.33382684E+01 1.64875153E-01-1.52343444E-04    3
 7.13941910E-08-1.34236310E-11 5.34246890E+04 8.34001921E+01                   4
C18H10                  C  18H  10          G300.000   3500.000  1430.000      1
 3.55205899E+01 2.97059393E-02-5.18578691E-06-7.74972602E-10 2.05763862E-13    2
 1.13998056E+04-1.72584615E+02-1.43149505E+01 1.69106052E-01-1.51409682E-04    3
 6.73946752E-08-1.17120067E-11 2.56527701E+04 8.56679583E+01                   4
C18H9                   C  18H   9          G300.000   3500.000  1110.000      1
 1.00826780E+01 9.26185738E-02-5.34378516E-05 1.44603235E-08-1.49786389E-12    2
 4.90427510E+04-3.41228885E+01-1.54340436E+01 1.84570724E-01-1.77697514E-04    3
 8.90907512E-08-1.83065188E-11 5.47074632E+04 9.16434687E+01                   4
LC6H5             T02/13C  6.H  5.   0.   0.G   200.000  6000.000 1000.0       1
 1.25741716E+01 1.60798796E-02-5.70684823E-06 9.14012701E-10-5.44207670E-14    2
 6.53917402E+04-3.82122725E+01 1.10254888E+00 4.70813200E-02-3.00988607E-05    3
 4.69225911E-10 5.25256079E-12 6.85431139E+04 2.10469724E+01 7.07019415E+04    4
C3 singlet        T04/09C  3.   0.   0.   0.G   200.000  6000.000 1000.0       1
 4.80363533E+00 2.14513832E-03-1.07293374E-06 2.60738413E-10-2.01634398E-14    2
 9.72408769E+04 3.89374482E-01 5.43290497E+00-4.46759757E-03 1.49323279E-05    3
-1.47954918E-08 5.01427143E-12 9.73400585E+04-1.58722640E+00 9.88663633E+04    4
C2 singlet        T05/09C  2.   0.   0.   0.G   200.000  6000.000 1000.0       1
 3.25289233E+00 1.23190307E-03-4.50354156E-07 7.49356656E-11-4.57925077E-15    2
 9.83737348E+04 3.95859964E+00 3.69386038E+00-1.84767427E-03 5.23712984E-06    3
-3.83965401E-09 8.61135711E-13 9.83822318E+04 2.23677006E+00 9.94405213E+04    4
END
